# avogadro generated ORCA input file 
# Basic Mode
# 
! B3LYP def2-SVP Opt
# My first ORCA calculation
!  Normalprint
%output
Print[ P_Basis ] 2
Print[ P_MOs ] 1
end

* xyz 0 1
   C       -3.53223        2.50505        0.00000
   C       -4.72400        1.77794        0.00000
   C       -4.69298        0.38523       -0.00000
   C       -3.46978       -0.28503       -0.00000
   C       -2.26235        0.42643       -0.00000
   C       -2.28434        1.84805        0.00000
   C       -1.04012        2.66261        0.00000
   O       -1.11737       -0.29204       -0.00000
   H       -0.22888        0.08219       -0.00000
   O       -1.09166        3.88300        0.00000
   H       -0.06086        2.20466        0.00000
   H       -3.59012        3.58649        0.00000
   H       -5.67403        2.29673        0.00000
   H       -5.61816       -0.17659       -0.00000
   H       -3.45890       -1.36799       -0.00000
*

